powerflow/Codes/PF_Formulation/resultados_csv/14/9bus/barras.csv
caso,script,bus_id,vm_pu,va_rad,pd_pu,qd_pu,pg_pu,qg_pu,bus_type
9bus.pwf,14,1,1.0999994360749565,-1.1455584447600071e-29,0.0,0.0,1.5765197671928135,0.12096431911664947,3
9bus.pwf,14,2,1.0975122015893035,-0.051323067798029386,0.0,0.0,0.8809631159752397,-0.02353807399335669,2
9bus.pwf,14,3,1.087570426809174,-0.05553453546716501,0.0,0.0,0.715675144293975,-0.21810114487898316,2
9bus.pwf,14,4,1.0967764957276773,-0.07533941244632114,0.0,0.0,0.0,0.0,1
9bus.pwf,14,5,1.0755725788464185,-0.14017270293440662,1.25,0.5,0.0,0.0,1
9bus.pwf,14,6,1.0872942304687576,-0.1257327878264068,0.9,0.3,0.0,0.0,1
9bus.pwf,14,7,1.0999972432955165,-0.09694644847950402,0.0,0.0,0.0,0.0,1
9bus.pwf,14,8,1.0894853548926267,-0.12878500923275116,1.0,0.35,0.0,0.0,1
9bus.pwf,14,9,1.0999981785289317,-0.09059786779364087,0.0,0.0,0.0,0.0,1
